  8
        -14.67274116
 C          0.7607307872       -0.0000247263        0.0000400699
 C         -0.7607293937        0.0000045631        0.0000093879
 H          1.1437047014        0.9670014652        0.3186430004
 H          1.1443785731       -0.7596334278        0.6772263129
 H          1.1431001027       -0.2070302665       -0.9971377091
 H         -1.1440119681       -0.9668752850       -0.3187141363
 H         -1.1431421450        0.2070900921        0.9969606705
 H         -1.1440458693        0.7596876890       -0.6775674837
