  10
         -4.75562947
 C         -0.0599010992       -0.5508603086        0.0426045717
 C          1.2573372004        0.2485714561       -0.0214702446
 C         -1.2869062045        0.3144215251       -0.0726861068
 H         -0.0713231402       -1.3113073200       -0.7671305023
 H         -0.0989475188       -1.1447489283        0.9806744031
 H          2.1499185474       -0.3999415070        0.0429964976
 H          1.3325849154        0.9798223901        0.8009126763
 H          1.3410683339        0.8185103521       -0.9626533227
 H         -2.2370875495       -0.2103754369       -0.1267154666
 H         -1.3500777235        1.1234661523        0.6462125482
  10
         -4.75548723
 C         -0.0769587731       -0.5672112669        0.0603046004
 C          1.2443763836        0.2251504868       -0.0029308715
 C         -1.3073975197        0.2908822512       -0.0542642826
 H         -0.0968460317       -1.3421610209       -0.7357646568
 H         -0.1265817126       -1.1541967648        1.0024176828
 H          2.1328589714       -0.4265134120        0.0831279056
 H          1.3144246690        0.9694455333        0.8087680145
 H          1.3448510018        0.7783551514       -0.9518825618
 H         -1.4657628481        0.9883268014        0.7614651192
 H         -1.4349276305        0.7965928465       -1.0051840165
