  9
  -9.5115581599999999       0.99998585859540123
 C         -0.0325606874       -0.3769809910       -0.2458332670
 C          1.3049840991        0.2409120282        0.0507235157
 C         -1.1998410531        0.4893867894       -0.1831669649
 H         -0.0006712585       -1.0215520848       -1.1421296348
 H          2.0801734815       -0.5297862571        0.1917258587
 H          1.2550174855        0.8287142905        0.9742222721
 H          1.7093598529        0.9347433913       -0.7326108006
 H         -1.2629202662        1.1063804836        0.7283320289
 H         -2.1570751476       -0.0257455780       -0.3639621569
  9
  -9.5010058599999994        1.4141404598776653E-005
 C         -0.0927753678       -0.5146085619       -0.1284923476
 C          1.1976662069        0.1994633825        0.1845943202
 C         -1.2456100412        0.4527506316       -0.0410519330
 H         -0.0446323993       -0.9512001902       -1.1397766123
 H         -0.2443574298       -1.3447453481        0.5811001661
 H          1.2138596920        0.6110985833        1.2058983495
 H          1.4153716373        1.0082505866       -0.5304045857
 H         -1.3628859808        0.8783718771        0.9679408724
 H         -1.1615605918        1.2752750973       -0.7685450832
  9
  -9.4626927900000002        3.4916015791592339E-023
 C         -0.0576878669       -0.5321425068       -0.1463439527
 C          1.3132445861        0.1311198833        0.1644642328
 C         -1.2695140263        0.3918634428       -0.0756655038
 H          0.0731780843       -1.0369237099       -1.1450826316
 H         -0.1858430727       -1.3582314500        0.5832361728
 H          2.1512622014       -0.5829672705        0.1366229225
 H          1.2878994188        0.5862044617        1.1567912786
 H          1.5172779491        0.9213595588       -0.5609793267
 H         -1.0218106276        1.2308881642       -0.8742241045
